Simulacoes/118/06 - EE/ieee118_2_0200_EE.txt
================================================================================= 
=== UFF - Doutorado em Computação - Aplicaçoes em Sistemas de Potencia        === 
=== ESTIMADOR DE ESTADO MÍNIMOS QUADRADOS PONDERADOS INCLUINDO MEDIDAS DE PMU === 
=== Desenvolvido por: Rui Menezes de Moraes - 2009                            === 
================================================================================= 
Arquivo de medidores:          F:\Documents\Uff\Artigos\SimSEP\VERSAO WELDAN V2\Codigos\Med\ieee118_2_0200.med
Arquivo do sistema:            F:\Documents\Uff\Artigos\SimSEP\VERSAO WELDAN V2\Codigos\Carga\ieee118_2_0200.txt
Tolerância entre iteraçoes:     1.00e-04
Limite de iteraçoes:           100

--- DADOS DA REDE --------------------------------------------------------------- 
Data do caso:                  08/25/93
Origem:                        UW ARCHIVE          
MVA base:                      100
Ano:                           1961
Estação:                       W
Identificação:                 IEEE 118 Bus Test Case
Número de barras:              118 
Número de ramos:               186 
Referência na barra:           69

--- TELEMEDIDAS ------------------------------------------------------------------
    Tipo 1 = Fluxo de potencia ativa        Tipo  6 = Módulo da tensão            
    Tipo 2 = Injeção de potencia ativa      Tipo  7 = Corrente de ramo (real)     
    Tipo 3 = Ângulo de fase da tensão       Tipo  8 = Corrente de ramo (imag)     
    Tipo 4 = Fluxo de potencia reativa      Tipo  9 = Injeção de corrente (real)  
    Tipo 5 = Injeção de potencia reativa    Tipo 10 = Injeção de corrente (imag)  
----------------------------------------------------------------------------------
   N    D    P TP  PN ST   Exa   FS       DP      V_Ref      V_Med          E(%) 
----------------------------------------------------------------------------------
   1    0    1  6   0  0 0.015 01.1  0.00497   +0.99343   +1.00609     +1.274373 
   2    0    2  6   0  0 0.015 01.1  0.00498   +0.99551   +0.98268     -1.288787 
   3    0    3  6   0  0 0.015 01.1  0.00498   +0.99646   +0.99286     -0.361279 
   4    0    4  6   0  0 0.015 01.1  0.00499   +0.99800   +0.99995     +0.195391 
   5    0    5  6   0  0 0.015 01.1  0.00501   +1.00230   +1.01002     +0.770228 
   6    0    6  6   0  0 0.015 01.1  0.00498   +0.99499   +1.00196     +0.700510 
   7    0    7  6   0  0 0.015 01.1  0.00498   +0.99567   +0.99213     -0.355539 
   8    0    8  6   0  0 0.015 01.1  0.00507   +1.01500   +1.02732     +1.213793 
   9    0    9  6   0  0 0.015 01.1  0.00525   +1.05004   +1.04037     -0.920917 
  10    0   10  6   0  0 0.015 01.1  0.00525   +1.05000   +1.06230     +1.171429 
  11    0   11  6   0  0 0.015 01.1  0.00499   +0.99784   +0.99060     -0.725567 
  12    0   12  6   0  0 0.015 01.1  0.00498   +0.99687   +0.99429     -0.258810 
  13    0   13  6   0  0 0.015 01.1  0.00500   +0.99907   +0.98418     -1.490386 
  14    0   14  6   0  0 0.015 01.1  0.00500   +0.99969   +1.00107     +0.138043 
  15    0   15  6   0  0 0.015 01.1  0.00502   +1.00426   +0.99959     -0.465019 
  16    0   16  6   0  0 0.015 01.1  0.00500   +1.00073   +1.00510     +0.436681 
  17    0   17  6   0  0 0.015 01.1  0.00504   +1.00857   +1.02165     +1.296886 
  18    0   18  6   0  0 0.015 01.1  0.00500   +1.00035   +1.00298     +0.262908 
  19    0   19  6   0  0 0.015 01.1  0.00502   +1.00325   +0.99604     -0.718664 
  20    0   20  6   0  0 0.015 01.1  0.00504   +1.00729   +1.01938     +1.200250 
  21    0   21  6   0  0 0.015 01.1  0.00504   +1.00890   +0.99429     -1.448112 
  22    0   22  6   0  0 0.015 01.1  0.00505   +1.00999   +1.00175     -0.815850 
  23    0   23  6   0  0 0.015 01.1  0.00504   +1.00819   +1.01475     +0.650671 
  24    0   24  6   0  0 0.015 01.1  0.00496   +0.99200   +0.98008     -1.201613 
  25    0   25  6   0  0 0.015 01.1  0.00525   +1.05000   +1.05684     +0.651429 
  26    0   26  6   0  0 0.015 01.1  0.00507   +1.01500   +1.00707     -0.781281 
  27    0   27  6   0  0 0.015 01.1  0.00484   +0.96800   +0.96547     -0.261364 
  28    0   28  6   0  0 0.015 01.1  0.00484   +0.96792   +0.96181     -0.631251 
  29    0   29  6   0  0 0.015 01.1  0.00484   +0.96722   +0.95711     -1.045264 
  30    0   30  6   0  0 0.015 01.1  0.00500   +1.00076   +0.99505     -0.570566 
  31    0   31  6   0  0 0.015 01.1  0.00483   +0.96700   +0.97087     +0.400207 
  32    0   32  6   0  0 0.015 01.1  0.00488   +0.97613   +0.96215     -1.432186 
  33    0   33  6   0  0 0.015 01.1  0.00507   +1.01354   +1.01731     +0.371964 
  34    0   34  6   0  0 0.015 01.1  0.00512   +1.02444   +1.01523     -0.899028 
  35    0   35  6   0  0 0.015 01.1  0.00511   +1.02266   +1.01951     -0.308020 
  36    0   36  6   0  0 0.015 01.1  0.00511   +1.02232   +1.02128     -0.101729 
  37    0   37  6   0  0 0.015 01.1  0.00513   +1.02505   +1.03422     +0.894591 
  38    0   38  6   0  0 0.015 01.1  0.00494   +0.98841   +0.98014     -0.836697 
  39    0   39  6   0  0 0.015 01.1  0.00495   +0.98932   +0.98583     -0.352768 
  40    0   40  6   0  0 0.015 01.1  0.00485   +0.97000   +0.98184     +1.220619 
  41    0   41  6   0  0 0.015 01.1  0.00487   +0.97360   +0.96261     -1.128800 
  42    0   42  6   0  0 0.015 01.1  0.00492   +0.98500   +0.97156     -1.364467 
  43    0   43  6   0  0 0.015 01.1  0.00517   +1.03371   +1.03959     +0.568825 
  44    0   44  6   0  0 0.015 01.1  0.00520   +1.03922   +1.03293     -0.605262 
  45    0   45  6   0  0 0.015 01.1  0.00515   +1.02967   +1.04501     +1.489798 
  46    0   46  6   0  0 0.015 01.1  0.00502   +1.00500   +0.99547     -0.948259 
  47    0   47  6   0  0 0.015 01.1  0.00502   +1.00495   +1.00661     +0.165182 
  48    0   48  6   0  0 0.015 01.1  0.00513   +1.02693   +1.02974     +0.273631 
  49    0   49  6   0  0 0.015 01.1  0.00513   +1.02500   +1.02497     -0.002927 
  50    0   50  6   0  0 0.015 01.1  0.00505   +1.00983   +1.00869     -0.112890 
  51    0   51  6   0  0 0.015 01.1  0.00495   +0.99041   +0.98010     -1.040983 
  52    0   52  6   0  0 0.015 01.1  0.00493   +0.98538   +0.97825     -0.723579 
  53    0   53  6   0  0 0.015 01.1  0.00484   +0.96885   +0.97531     +0.666770 
  54    0   54  6   0  0 0.015 01.1  0.00477   +0.95500   +0.96922     +1.489005 
  55    0   55  6   0  0 0.015 01.1  0.00480   +0.95932   +0.96092     +0.166785 
  56    0   56  6   0  0 0.015 01.1  0.00480   +0.95988   +0.96402     +0.431304 
  57    0   57  6   0  0 0.015 01.1  0.00491   +0.98156   +0.98689     +0.543013 
  58    0   58  6   0  0 0.015 01.1  0.00489   +0.97770   +0.99098     +1.358290 
  59    0   59  6   0  0 0.015 01.1  0.00492   +0.98500   +0.98105     -0.401015 
  60    0   60  6   0  0 0.015 01.1  0.00498   +0.99549   +0.99457     -0.092417 
  61    0   61  6   0  0 0.015 01.1  0.00498   +0.99500   +0.98391     -1.114573 
  62    0   62  6   0  0 0.015 01.1  0.00501   +1.00116   +0.98854     -1.260538 
  63    0   63  6   0  0 0.015 01.1  0.00487   +0.97403   +0.97531     +0.131413 
  64    0   64  6   0  0 0.015 01.1  0.00494   +0.98701   +0.99211     +0.516712 
  65    0   65  6   0  0 0.015 01.1  0.00502   +1.00500   +1.01536     +1.030846 
  66    0   66  6   0  0 0.015 01.1  0.00525   +1.05000   +1.05310     +0.295238 
  67    0   67  6   0  0 0.015 01.1  0.00514   +1.02792   +1.01442     -1.313332 
  68    0   68  6   0  0 0.015 01.1  0.00496   +0.99224   +0.99932     +0.713537 
  69    0   69  6   0  0 0.015 01.1  0.00517   +1.03500   +1.02424     -1.039614 
  70    0   70  6   0  0 0.015 01.1  0.00499   +0.99758   +0.98516     -1.245013 
  71    0   71  6   0  0 0.015 01.1  0.00496   +0.99253   +0.97910     -1.353108 
  72    0   72  6   0  0 0.015 01.1  0.00490   +0.98000   +0.96766     -1.259184 
  73    0   73  6   0  0 0.015 01.1  0.00496   +0.99100   +0.98248     -0.859738 
  74    0   74  6   0  0 0.015 01.1  0.00499   +0.99796   +0.99462     -0.334683 
  75    0   75  6   0  0 0.015 01.1  0.00499   +0.99750   +0.99116     -0.635589 
  76    0   76  6   0  0 0.015 01.1  0.00493   +0.98541   +0.97505     -1.051339 
  77    0   77  6   0  0 0.015 01.1  0.00503   +1.00600   +1.01004     +0.401590 
  78    0   78  6   0  0 0.015 01.1  0.00505   +1.01095   +0.99923     -1.159306 
  79    0   79  6   0  0 0.015 01.1  0.00510   +1.02045   +1.02763     +0.703611 
  80    0   80  6   0  0 0.015 01.1  0.00520   +1.04000   +1.05217     +1.170192 
  81    0   81  6   0  0 0.015 01.1  0.00495   +0.98947   +0.98777     -0.171809 
  82    0   82  6   0  0 0.015 01.1  0.00498   +0.99604   +0.99330     -0.275089 
  83    0   83  6   0  0 0.015 01.1  0.00496   +0.99127   +0.98871     -0.258255 
  84    0   84  6   0  0 0.015 01.1  0.00497   +0.99380   +1.00509     +1.136043 
  85    0   85  6   0  0 0.015 01.1  0.00500   +0.99989   +1.00071     +0.082009 
  86    0   86  6   0  0 0.015 01.1  0.00504   +1.00706   +0.99581     -1.117113 
  87    0   87  6   0  0 0.015 01.1  0.00507   +1.01500   +1.00622     -0.865025 
  88    0   88  6   0  0 0.015 01.1  0.00500   +0.99898   +0.98904     -0.995015 
  89    0   89  6   0  0 0.015 01.1  0.00502   +1.00500   +1.00062     -0.435821 
  90    0   90  6   0  0 0.015 01.1  0.00492   +0.98500   +0.98100     -0.406091 
  91    0   91  6   0  0 0.015 01.1  0.00490   +0.98000   +0.98152     +0.155102 
  92    0   92  6   0  0 0.015 01.1  0.00500   +0.99921   +0.98816     -1.105874 
  93    0   93  6   0  0 0.015 01.1  0.00498   +0.99612   +1.00240     +0.630446 
  94    0   94  6   0  0 0.015 01.1  0.00500   +0.99910   +0.99475     -0.435392 
  95    0   95  6   0  0 0.015 01.1  0.00498   +0.99616   +1.00056     +0.441696 
  96    0   96  6   0  0 0.015 01.1  0.00499   +0.99841   +0.99617     -0.224357 
  97    0   97  6   0  0 0.015 01.1  0.00508   +1.01638   +1.02423     +0.772349 
  98    0   98  6   0  0 0.015 01.1  0.00511   +1.02204   +1.01416     -0.771007 
  99    0   99  6   0  0 0.015 01.1  0.00505   +1.01000   +1.00056     -0.934653 
 100    0  100  6   0  0 0.015 01.1  0.00509   +1.01700   +1.00640     -1.042281 
 101    0  101  6   0  0 0.015 01.1  0.00504   +1.00800   +1.02285     +1.473214 
 102    0  102  6   0  0 0.015 01.1  0.00501   +1.00209   +1.01637     +1.425022 
 103    0  103  6   0  0 0.015 01.1  0.00505   +1.01000   +1.02279     +1.266337 
 104    0  104  6   0  0 0.015 01.1  0.00499   +0.99727   +0.99581     -0.146400 
 105    0  105  6   0  0 0.015 01.1  0.00497   +0.99353   +0.98464     -0.894789 
 106    0  106  6   0  0 0.015 01.1  0.00495   +0.98999   +0.98629     -0.373741 
 107    0  107  6   0  0 0.015 01.1  0.00476   +0.95200   +0.95894     +0.728992 
 108    0  108  6   0  0 0.015 01.1  0.00495   +0.99075   +1.00267     +1.203129 
 109    0  109  6   0  0 0.015 01.1  0.00495   +0.98931   +1.00001     +1.081562 
 110    0  110  6   0  0 0.015 01.1  0.00492   +0.98506   +0.99905     +1.420218 
 111    0  111  6   0  0 0.015 01.1  0.00490   +0.98000   +0.96975     -1.045918 
 112    0  112  6   0  0 0.015 01.1  0.00487   +0.97500   +0.96398     -1.130256 
 113    0  113  6   0  0 0.015 01.1  0.00496   +0.99300   +0.98388     -0.918429 
 114    0  114  6   0  0 0.015 01.1  0.00486   +0.97258   +0.96551     -0.726932 
 115    0  115  6   0  0 0.015 01.1  0.00486   +0.97195   +0.97860     +0.684192 
 116    0  116  6   0  0 0.015 01.1  0.00502   +1.00500   +0.99666     -0.829851 
 117    0  117  6   0  0 0.015 01.1  0.00498   +0.99689   +0.99979     +0.290905 
 118    0  118  6   0  0 0.015 01.1  0.00495   +0.99022   +0.98053     -0.978570 
 119    0    1  2   0  0 0.020 01.0  0.00221   -0.07100   -0.07000     -1.408451 
 120    0    2  2   0  0 0.020 01.0  0.00192   -0.02800   -0.02847     +1.678571 
 121    0    3  2   0  0 0.020 01.0  0.00210   -0.05500   -0.05017     -8.781818 
 122    0    4  2   0  0 0.020 01.0  0.00247   -0.11100   -0.11832     +6.594595 
 123    0    5  2   0  0 0.020 01.0  0.00173   -0.00000   -0.00138     +0.000000 
 124    0    6  2   0  0 0.020 01.0  0.00222   -0.07300   -0.07749     +6.150685 
 125    0    7  2   0  0 0.020 01.0  0.00191   -0.02700   -0.03186    +18.000000 
 126    0    8  2   0  0 0.020 01.0  0.00360   -0.28000   -0.27134     -3.092857 
 127    0    9  2   0  0 0.020 01.0  0.00173   -0.00000   -0.00075     +0.000000 
 128    0   10  2   0  0 0.020 01.0  0.01507   +2.00000   +2.00420     +0.210000 
 129    0   11  2   0  0 0.020 01.0  0.00239   -0.09800   -0.10391     +6.030612 
 130    0   12  2   0  0 0.020 01.0  0.00696   +0.78400   +0.78771     +0.473214 
 131    0   13  2   0  0 0.020 01.0  0.00205   -0.04800   -0.04913     +2.354167 
 132    0   14  2   0  0 0.020 01.0  0.00187   -0.02000   -0.01874     -6.300000 
 133    0   15  2   0  0 0.020 01.0  0.00257   -0.12600   -0.13310     +5.634921 
 134    0   16  2   0  0 0.020 01.0  0.00197   -0.03500   -0.04033    +15.228571 
 135    0   17  2   0  0 0.020 01.0  0.00183   -0.01500   -0.01547     +3.133333 
 136    0   18  2   0  0 0.020 01.0  0.00229   -0.08400   -0.07960     -5.238095 
 137    0   19  2   0  0 0.020 01.0  0.00215   -0.06300   -0.06043     -4.079365 
 138    0   20  2   0  0 0.020 01.0  0.00190   -0.02500   -0.02443     -2.280000 
 139    0   21  2   0  0 0.020 01.0  0.00187   -0.02000   -0.02335    +16.750000 
 140    0   22  2   0  0 0.020 01.0  0.00183   -0.01400   -0.01249    -10.785714 
 141    0   23  2   0  0 0.020 01.0  0.00180   -0.01000   -0.01491    +49.100000 
 142    0   24  2   0  0 0.020 01.0  0.00260   -0.13000   -0.12656     -2.646154 
 143    0   25  2   0  0 0.020 01.0  0.00746   +0.85900   +0.85561     -0.394645 
 144    0   26  2   0  0 0.020 01.0  0.01785   +2.41700   +2.41869     +0.069921 
 145    0   27  2   0  0 0.020 01.0  0.00291   -0.17700   -0.16981     -4.062147 
 146    0   28  2   0  0 0.020 01.0  0.00189   -0.02400   -0.02116    -11.833333 
 147    0   29  2   0  0 0.020 01.0  0.00196   -0.03400   -0.02857    -15.970588 
 148    0   30  2   0  0 0.020 01.0  0.00173   -0.00000   +0.00268     +0.000000 
 149    0   31  2   0  0 0.020 01.0  0.00180   +0.01000   +0.00933     -6.700000 
 150    0   32  2   0  0 0.020 01.0  0.00229   -0.08300   -0.08361     +0.734940 
 151    0   33  2   0  0 0.020 01.0  0.00195   -0.03200   -0.03186     -0.437500 
 152    0   34  2   0  0 0.020 01.0  0.00229   -0.08300   -0.08665     +4.397590 
 153    0   35  2   0  0 0.020 01.0  0.00204   -0.04600   -0.04674     +1.608696 
 154    0   36  2   0  0 0.020 01.0  0.00202   -0.04300   -0.04731    +10.023256 
 155    0   37  2   0  0 0.020 01.0  0.00173   +0.00000   +0.00024     +0.000000 
 156    0   38  2   0  0 0.020 01.0  0.00173   +0.00000   -0.00100     +0.000000 
 157    0   39  2   0  0 0.020 01.0  0.00199   -0.03800   -0.04330    +13.947368 
 158    0   40  2   0  0 0.020 01.0  0.00499   -0.48800   -0.49206     +0.831967 
 159    0   41  2   0  0 0.020 01.0  0.00208   -0.05200   -0.05701     +9.634615 
 160    0   42  2   0  0 0.020 01.0  0.00601   -0.64200   -0.63803     -0.618380 
 161    0   43  2   0  0 0.020 01.0  0.00190   -0.02500   -0.02815    +12.600000 
 162    0   44  2   0  0 0.020 01.0  0.00188   -0.02200   -0.02109     -4.136364 
 163    0   45  2   0  0 0.020 01.0  0.00223   -0.07400   -0.07626     +3.054054 
 164    0   46  2   0  0 0.020 01.0  0.00274   +0.15100   +0.15505     +2.682119 
 165    0   47  2   0  0 0.020 01.0  0.00205   -0.04800   -0.04453     -7.229167 
 166    0   48  2   0  0 0.020 01.0  0.00192   -0.02800   -0.03239    +15.678571 
 167    0   49  2   0  0 0.020 01.0  0.01452   +1.91800   +1.91199     -0.313347 
 168    0   50  2   0  0 0.020 01.0  0.00189   -0.02400   -0.02803    +16.791667 
 169    0   51  2   0  0 0.020 01.0  0.00189   -0.02400   -0.02855    +18.958333 
 170    0   52  2   0  0 0.020 01.0  0.00190   -0.02500   -0.02484     -0.640000 
 171    0   53  2   0  0 0.020 01.0  0.00195   -0.03200   -0.03568    +11.500000 
 172    0   54  2   0  0 0.020 01.0  0.00388   +0.32200   +0.32724     +1.627329 
 173    0   55  2   0  0 0.020 01.0  0.00232   -0.08800   -0.09442     +7.295455 
 174    0   56  2   0  0 0.020 01.0  0.00252   -0.11800   -0.12291     +4.161017 
 175    0   57  2   0  0 0.020 01.0  0.00185   -0.01700   -0.01314    -22.705882 
 176    0   58  2   0  0 0.020 01.0  0.00185   -0.01700   -0.01334    -21.529412 
 177    0   59  2   0  0 0.020 01.0  0.00948   +1.16200   +1.14516     -1.449225 
 178    0   60  2   0  0 0.020 01.0  0.00246   -0.10900   -0.10918     +0.165138 
 179    0   61  2   0  0 0.020 01.0  0.01240   +1.60000   +1.60264     +0.165000 
 180    0   62  2   0  0 0.020 01.0  0.00245   -0.10800   -0.11248     +4.148148 
 181    0   63  2   0  0 0.020 01.0  0.00173   -0.00000   +0.00431     +0.000000 
 182    0   64  2   0  0 0.020 01.0  0.00173   -0.00000   -0.00226     +0.000000 
 183    0   65  2   0  0 0.020 01.0  0.02780   +3.91000   +3.98523     +1.924041 
 184    0   66  2   0  0 0.020 01.0  0.02750   +3.86500   +3.89522     +0.781889 
 185    0   67  2   0  0 0.020 01.0  0.00199   -0.03900   -0.03759     -3.615385 
 186    0   68  2   0  0 0.020 01.0  0.00173   +0.00000   +0.00051     +0.000000 
 187    0   69  2   0  0 0.020 01.0  0.13621  -20.17182  -19.94465     -1.126175 
 188    0   70  2   0  0 0.020 01.0  0.00235   -0.09200   -0.09576     +4.086957 
 189    0   71  2   0  0 0.020 01.0  0.00173   +0.00000   -0.00399     +0.000000 
 190    0   72  2   0  0 0.020 01.0  0.00253   -0.12000   -0.12223     +1.858333 
 191    0   73  2   0  0 0.020 01.0  0.00213   -0.06000   -0.06512     +8.533333 
 192    0   74  2   0  0 0.020 01.0  0.00237   -0.09500   -0.09669     +1.778947 
 193    0   75  2   0  0 0.020 01.0  0.00217   -0.06600   -0.05977     -9.439394 
 194    0   76  2   0  0 0.020 01.0  0.00237   -0.09500   -0.09338     -1.705263 
 195    0   77  2   0  0 0.020 01.0  0.00230   -0.08500   -0.08395     -1.235294 
 196    0   78  2   0  0 0.020 01.0  0.00239   -0.09900   -0.09972     +0.727273 
 197    0   79  2   0  0 0.020 01.0  0.00210   -0.05500   -0.05568     +1.236364 
 198    0   80  2   0  0 0.020 01.0  0.03232   +4.58800   +4.57005     -0.391238 
 199    0   81  2   0  0 0.020 01.0  0.00173   +0.00000   +0.00415     +0.000000 
...
Número de medidores SCADA:     1098
Número de PMUs:                0
Número de medidas das PMUs:    0
----------------------------------------------------------------------------------

Não há medidas de ângulo.
Não há medidores desabilitados.
============================== Estado Estimado ===================================
                 Barra     Mod(pu)    Ang(graus)              
----------------------------------------------------------------------------------
                    1            0.9941             44.18        
                    2            0.9959             44.30        
                    3            0.9971             44.26        
                    4            0.9985             44.65        
                    5            1.0028             44.68        
                    6            0.9954             44.49        
                    7            0.9961             44.46        
                    8            1.0156             45.39        
                    9            1.0508             48.52        
                   10            1.0508             51.91        
                   11            0.9982             44.28        
                   12            0.9973             44.48        
                   13            0.9997             43.14        
                   14            0.9999             43.22        
                   15            1.0044             40.09        
                   16            1.0011             43.14        
                   17            1.0088             40.73        
                   18            1.0004             40.04        
                   19            1.0033             39.47        
                   20            1.0073             38.71        
                   21            1.0088             38.31        
                   22            1.0101             37.98        
                   23            1.0085             37.61        
                   24            0.9922             32.03        
                   25            1.0505             44.65        
                   26            1.0156             47.23        
                   27            0.9683             40.98        
                   28            0.9683             40.74        
                   29            0.9676             40.64        
                   30            1.0012             41.91        
                   31            0.9672             40.68        
                   32            0.9763             40.07        
                   33            1.0139             37.54        
                   34            1.0249             34.99        
                   35            1.0231             34.93        
                   36            1.0228             34.94        
                   37            1.0255             35.00        
                   38            0.9888             36.40        
                   39            0.9898             32.62        
                   40            0.9705             31.33        
                   41            0.9740             30.63        
                   42            0.9854             29.15        
                   43            1.0338             33.28        
                   44            1.0396             31.29        
                   45            1.0301             30.83        
                   46            1.0057             30.28        
                   47            1.0057             27.19        
                   48            1.0278             31.34        
                   49            1.0258             31.88        
                   50            1.0108             32.47        
                   51            0.9914             33.31        
                   52            0.9864             33.52        
                   53            0.9697             34.31        
                   54            0.9564             35.19        
                   55            0.9607             35.09        
                   56            0.9612             35.05        
                   57            0.9828             33.87        
                   58            0.9790             33.99        
                   59            0.9858             36.35        
                   60            0.9961             36.00        
                   61            0.9956             36.11        
                   62            1.0018             35.78        
                   63            0.9746             34.86        
                   64            0.9876             33.98        
                   65            1.0058             30.30        
                   66            1.0508             35.03        
                   67            1.0289             35.25        
                   68            0.9930             21.51        
                   69            1.0358              0.00        
                   70            0.9983             11.29        
                   71            0.9933             12.76        
                   72            0.9802             21.20        
                   73            0.9918             12.60        
                   74            0.9987             11.51        
                   75            0.9982             11.83        
                   76            0.9861             17.07        
                   77            1.0067             25.44        
                   78            1.0117             26.07        
                   79            1.0211             27.47        
                   80            1.0408             31.79        
                   81            0.9902             25.43        
                   82            0.9961             37.85        
                   83            0.9908             42.00        
                   84            0.9929             48.88        
                   85            0.9990             52.28        
                   86            1.0062             52.23        
                   87            1.0141             52.64        
                   88            0.9982             58.23        
                   89            1.0049             62.62        
                   90            0.9879             58.77        
                   91            0.9822             57.63        
                   92            0.9999             56.14        
                   93            0.9970             51.00        
                   94            0.9998             46.72        
                   95            0.9968             43.68        
                   96            0.9989             40.01        
                   97            1.0170             35.87        
                   98            1.0229             37.86        
                   99            1.0110             42.40        
                  100            1.0179             48.59        
                  101            1.0092             51.58        
                  102            1.0032             54.55        
                  103            1.0107             48.59        
                  104            0.9982             47.75        
                  105            0.9944             47.47        
                  106            0.9909             47.32        
                  107            0.9529             46.49        
                  108            0.9913             47.36        
                  109            0.9900             47.33        
                  110            0.9859             47.31        
                  111            0.9809             49.15        
                  112            0.9761             45.49        
                  113            0.9933             40.75        
                  114            0.9729             40.37        
                  115            0.9722             40.42        
                  116            1.0059             21.01        
                  117            0.9975             44.25        
                  118            0.9907             14.19        
----------------------------------------------------------------------------------
Convergiu em:    3 iteraçoes. 
----------------------------------------------------------------------------------
--- RESIDUOS NORMALIZADOS --------------------------------------------------------
   N    D    P  TP      Real     Medido   Estimado      Med-Est        rn 
----------------------------------------------------------------------------------
 867   92   89  1    -2.1110    -2.1564    -0.6738  -1.4825e+00     11.857 
 495   89   92  1    +2.1569    +2.1783    +0.6929  +1.4854e+00     11.772 
 477   77   80  1    -2.2555    -2.2733    -1.0920  -1.1813e+00      9.170 
 849   80   77  1    +2.3418    +2.2999    +1.1266  +1.1732e+00      8.959 
 492   89   90  1    +0.4034    +0.4016    +0.6759  -2.7436e-01      4.487 
 864   90   89  1    -0.3950    -0.3976    -0.6651  +2.6755e-01      4.382 
1053   92   89  4    +0.3933    +0.3926    +0.1560  +2.3666e-01      3.623 
 663   77   80  4    +0.1877    +0.1853    +0.0292  +1.5613e-01      2.903 
 210    0   92  2    -0.0910    -0.0885    -0.1295  +4.1003e-02      2.639 
 208    0   90  2    -0.9590    -0.9750    -0.7821  -1.9285e-01      2.585 
 195    0   77  2    -0.0850    -0.0839    -0.1184  +3.4495e-02      2.525 
 681   89   92  4    -0.2140    -0.2203    -0.1208  -9.9472e-02      1.791 
 869   92   91  1    -0.0859    -0.0800    -0.1442  +6.4160e-02      1.466 
1035   80   77  4    +0.0089    +0.0135    +0.0706  -5.7176e-02      1.387 
 328    0   92  5    -0.0440    -0.0447    -0.0210  -2.3629e-02      1.250 
 493   89   90  1    +0.7662    +0.7705    +0.6759  +9.4599e-02      1.205 
 497   91   92  1    +0.0874    +0.0936    +0.1463  -5.2695e-02      1.203 
 198    0   80  2    +4.5880    +4.5701    +4.7311  -1.6106e-01      1.167 
 313    0   77  5    +0.2620    +0.2715    +0.3053  -3.3809e-02      1.124 
 866   91   90  1    -0.1874    -0.1792    -0.2308  +5.1560e-02      1.051 
 187    0   69  2   -20.1718   -19.9446   -20.2756  +3.3096e-01      0.961 
 494   90   91  1    +0.1883    +0.1861    +0.2322  -4.6043e-02      0.940 
 865   90   89  1    -0.7523    -0.7374    -0.6651  -7.2253e-02      0.924 
1050   90   89  4    -0.0063    -0.0027    -0.0385  +3.5735e-02      0.910 
 211    0   93  2    -0.0170    -0.0129    -0.0307  +1.7833e-02      0.846 
 196    0   78  2    -0.0990    -0.0997    -0.1216  +2.1852e-02      0.823 
1019   69   68  4    +1.3055    +1.2783    +1.3360  -5.7747e-02      0.692 
 887  102   92  1    -0.4326    -0.4203    -0.4597  +3.9469e-02      0.640 
 481   81   80  1    -3.2733    -3.2091    -3.2982  +8.9031e-02      0.623 
 851   80   79  1    +1.1216    +1.0973    +1.1541  -5.6747e-02      0.608 
 193    0   75  2    -0.0660    -0.0598    -0.0721  +1.2364e-02      0.602 
 479   79   80  1    -1.1034    -1.0825    -1.1348  +5.2320e-02      0.563 
 325    0   89  5    -0.4828    -0.4938    -0.5197  +2.5939e-02      0.538 
 850   80   77  1    +1.1004    +1.0768    +1.1266  -4.9795e-02      0.529 
 201    0   83  2    -0.0280    -0.0259    -0.0359  +9.9897e-03      0.489 
 478   77   80  1    -1.0673    -1.0476    -1.0920  +4.4348e-02      0.476 
 863   89   88  1    +1.0463    +1.0254    +1.0660  -4.0523e-02      0.463 
 209    0   91  2    -0.1000    -0.0997    -0.0844  -1.5266e-02      0.440 
 473   69   77  1    -3.6777    -3.6220    -3.6922  +7.0246e-02      0.440 
 213    0   95  2    -0.0590    -0.0528    -0.0632  +1.0368e-02      0.434 
 200    0   82  2    -0.0760    -0.0771    -0.0861  +8.9456e-03      0.433 
 491   88   89  1    -1.0312    -1.0132    -1.0503  +3.7099e-02      0.425 
 212    0   94  2    -0.0420    -0.0389    -0.0464  +7.5230e-03      0.423 
 669   82   83  4    +0.7056    +0.6919    +0.7230  -3.1104e-02      0.421 
 194    0   76  2    -0.0950    -0.0934    -0.1057  +1.2283e-02      0.418 
 461   68   69  1   +10.8119   +10.7917   +10.9007  -1.0902e-01      0.417 
 220    0  102  2    -0.0070    -0.0108    -0.0209  +1.0110e-02      0.410 
 868   92   89  1    -0.6593    -0.6430    -0.6738  +3.0857e-02      0.400 
 483   82   83  1    -1.7173    -1.6832    -1.7253  +4.2148e-02      0.389 
 216    0   98  2    -0.0480    -0.0428    -0.0343  -8.4561e-03      0.385 
 485   83   85  1    -1.0751    -1.0509    -1.0865  +3.5608e-02      0.384 
 489   85   88  1    -0.9451    -0.9317    -0.9635  +3.1773e-02      0.367 
 846   77   75  1    +1.1224    +1.1009    +1.1357  -3.4807e-02      0.367 
 836   71   70  1    +0.6541    +0.6721    +0.6465  +2.5612e-02      0.365 
 214    0   96  2    -0.0530    -0.0565    -0.0632  +6.7194e-03      0.364 
 197    0   79  2    -0.0550    -0.0557    -0.0645  +8.8604e-03      0.360 
 337    0  101  5    -0.0210    -0.0257    -0.0150  -1.0694e-02      0.359 
 329    0   93  5    -0.0100    -0.0073    +0.0021  -9.4590e-03      0.359 
 188    0   70  2    -0.0920    -0.0958    -0.1041  +8.3249e-03      0.355 
 486   84   85  1    -0.7651    -0.7496    -0.7772  +2.7614e-02      0.350 
 885  100   99  1    +1.3378    +1.3666    +1.3346  +3.2017e-02      0.336 
 870   93   92  1    -0.9369    -0.9315    -0.9604  +2.8880e-02      0.335 
 665   79   80  4    -0.0082    -0.0132    -0.0002  -1.3088e-02      0.333 
 679   89   90  4    -0.0061    -0.0086    -0.0216  +1.2993e-02      0.332 
 884  100   98  1    +1.0551    +1.0775    +1.0476  +2.9963e-02      0.330 
 316    0   80  5    +1.4724    +1.4795    +1.4543  +2.5211e-02      0.328 
 453   49   66  1    -0.6616    -0.6456    -0.6699  +2.4286e-02      0.327 
 429   49   54  1    -0.1232    -0.1264    -0.1102  -1.6228e-02      0.325 
1016   68   65  4    +0.4289    +0.4245    +0.4410  -1.6567e-02      0.320 
 338    0  102  5    -0.0040    -0.0015    +0.0075  -9.0220e-03      0.316 
 236    0  118  2    -0.0460    -0.0508    -0.0588  +8.0070e-03      0.315 
 644   65   68  4    +0.3806    +0.3714    +0.3865  -1.5072e-02      0.314 
 503   82   96  1    -0.6462    -0.6354    -0.6580  +2.2626e-02      0.311 
 780   38   30  1    -1.7581    -1.7938    -1.7601  -3.3677e-02      0.307 
 684   92   93  4    -0.2221    -0.2139    -0.2302  +1.6250e-02      0.306 
 515   92  102  1    +0.4352    +0.4439    +0.4627  -1.8775e-02      0.305 
 801   54   49  1    +0.1299    +0.1326    +0.1178  +1.4812e-02      0.294 
 203    0   85  2    -0.0340    -0.0378    -0.0431  +5.3348e-03      0.289 
 496   89   92  1    +0.6775    +0.6706    +0.6929  -2.2273e-02      0.286 
1057   94   92  4    +0.3377    +0.3289    +0.3461  -1.7214e-02      0.279 
 141    0   23  2    -0.0100    -0.0149    -0.0099  -4.9841e-03      0.278 
 733    9    8  1    +1.9906    +2.0353    +2.0044  +3.0874e-02      0.276 
 157    0   39  2    -0.0380    -0.0433    -0.0358  -7.4638e-03      0.273 
 852   81   68  1    +3.2733    +3.2669    +3.3051  -3.8221e-02      0.268 
 386   26   25  1    +1.3051    +1.2824    +1.3065  -2.4109e-02      0.268 
 648   69   70  4    +0.7333    +0.7507    +0.7299  +2.0846e-02      0.267 
 830   68   65  1    -9.4028    -9.5343    -9.4711  -6.3176e-02      0.265 
 658   76   77  4    +0.1835    +0.1770    +0.1902  -1.3210e-02      0.262 
 856   84   83  1    +0.7501    +0.7352    +0.7560  -2.0819e-02      0.262 
1042   84   83  4    -0.2963    -0.2859    -0.3012  +1.5305e-02      0.259 
 659   69   77  4    +2.3610    +2.4059    +2.3733  +3.2601e-02      0.253 
 662   78   79  4    -0.1517    -0.1562    -0.1444  -1.1885e-02      0.251 
 877   97   80  1    +0.7377    +0.7520    +0.7328  +1.9191e-02      0.249 
 135    0   17  2    -0.0150    -0.0155    -0.0202  +4.7640e-03      0.246 
 862   89   85  1    +1.0197    +1.0175    +1.0396  -2.2020e-02      0.244 
1005   59   63  4    -0.7467    -0.7622    -0.7434  -1.8801e-02      0.243 
 513   99  100  1    -1.3063    -1.3262    -1.3033  -2.2890e-02      0.241 
 404   34   37  1    -0.0310    -0.0255    -0.0344  +8.8893e-03      0.241 
 920    5    8  4    -1.0541    -1.0366    -1.0571  +2.0435e-02      0.241 
 963   37   38  4    -0.8682    -0.8483    -0.8677  +1.9352e-02      0.238 
 670   83   84  4    +0.3568    +0.3488    +0.3635  -1.4691e-02      0.237 
 330    0   94  5    -0.0220    -0.0201    -0.0150  -5.1152e-03      0.235 
 945   27   25  4    -0.4641    -0.4501    -0.4658  +1.5754e-02      0.235 
1038   81   68  4    -0.7028    -0.6879    -0.7050  +1.7069e-02      0.233 
 911  118   75  1    +0.7449    +0.7550    +0.7376  +1.7440e-02      0.232 
 143    0   25  2    +0.8590    +0.8556    +0.8691  -1.3520e-02      0.232 
 886  101  100  1    +0.3897    +0.3785    +0.3926  -1.4153e-02      0.231 
 199    0   81  2    +0.0000    +0.0042    +0.0070  -2.8396e-03      0.229 
 500   93   94  1    +0.9199    +0.9104    +0.9297  -1.9287e-02      0.227 
 122    0    4  2    -0.1110    -0.1183    -0.1097  -8.5846e-03      0.226 
 217    0   99  2    -0.4200    -0.4092    -0.4186  +9.4611e-03      0.225 
 844   77   76  1    +0.9371    +0.9357    +0.9548  -1.9078e-02      0.221 
  13    0   13  6    +0.9991    +0.9842    +0.9997  -1.5518e-02      0.220 
 215    0   97  2    -0.0210    -0.0247    -0.0199  -4.7742e-03      0.220 
1043   85   83  4    -0.1832    -0.1753    -0.1867  +1.1468e-02      0.219 
 880  100   92  1    -0.4023    -0.3988    -0.4131  +1.4287e-02      0.218 
 219    0  101  2    -0.0310    -0.0352    -0.0410  +5.7846e-03      0.218 
 297    0   61  5    -0.4445    -0.4339    -0.4450  +1.1113e-02      0.215 
 678   89   90  4    -0.0157    -0.0130    -0.0216  +8.5734e-03      0.215 
 845   77   69  1    +4.2363    +4.2912    +4.2548  +3.6454e-02      0.215 
 476   78   79  1    -1.0425    -1.0451    -1.0641  +1.9052e-02      0.214 
 685   92   94  4    -0.2275    -0.2186    -0.2305  +1.1926e-02      0.214 
 374   12   16  1    +0.2474    +0.2407    +0.2518  -1.1044e-02      0.209 
 634   63   64  4    -0.7873    -0.8046    -0.7882  -1.6367e-02      0.209 
  45    0   45  6    +1.0297    +1.0450    +1.0301  +1.4876e-02      0.208 
 888  102  101  1    +0.4256    +0.4255    +0.4388  -1.3268e-02      0.207 
 470   69   75  1    -1.4221    -1.3946    -1.4159  +2.1223e-02      0.207 
 781   40   39  1    -0.4136    -0.4268    -0.4141  -1.2720e-02      0.206 
  21    0   21  6    +1.0089    +0.9943    +1.0088  -1.4509e-02      0.205 
  32    0   32  6    +0.9761    +0.9621    +0.9763  -1.4164e-02      0.203 
 842   75   69  1    +1.5342    +1.5485    +1.5270  +2.1474e-02      0.203 
 819   59   63  1    +0.6811    +0.6899    +0.6749  +1.4958e-02      0.203 
  71    0   71  6    +0.9925    +0.9791    +0.9933  -1.4182e-02      0.202 
 384   23   24  1    +1.9285    +1.9692    +1.9461  +2.3102e-02      0.202 
  67    0   67  6    +1.0279    +1.0144    +1.0289  -1.4437e-02      0.202 
 508   92  100  1    +0.4144    +0.4125    +0.4259  -1.3320e-02      0.202 
 853   80   81  1    +3.2733    +3.3269    +3.2982  +2.8749e-02      0.201 
 854   82   77  1    +2.2875    +2.2720    +2.2973  -2.5268e-02      0.201 
 126    0    8  2    -0.2800    -0.2713    -0.2781  +6.7477e-03      0.200 
 300    0   64  5    +0.0000    -0.0022    -0.0062  +3.9877e-03      0.200 
  42    0   42  6    +0.9850    +0.9716    +0.9854  -1.3857e-02      0.198 
1008   65   38  4    -0.2062    -0.2126    -0.2032  -9.3622e-03      0.198 
 459   47   69  1    +1.6434    +1.6758    +1.6540  +2.1798e-02      0.196 
 362    8    5  1    +0.4711    +0.4619    +0.4737  -1.1808e-02      0.195 
 450   38   65  1    +1.0556    +1.0702    +1.0534  +1.6749e-02      0.195 
 505   80   97  1    -0.7256    -0.7059    -0.7209  +1.4960e-02      0.195 
 101    0  101  6    +1.0080    +1.0229    +1.0092  +1.3661e-02      0.193 
 831   69   47  1    -1.4144    -1.4427    -1.4225  -2.0189e-02      0.193 
 778   39   37  1    -0.4556    -0.4414    -0.4539  +1.2547e-02      0.193 
 419   47   49  1    -1.3022    -1.2886    -1.3074  +1.8778e-02      0.191 
 543    4    5  4    -0.4958    -0.5100    -0.4982  -1.1877e-02      0.191 
 463   24   70  1    +0.8469    +0.8373    +0.8535  -1.6204e-02      0.191 
1039   80   81  4    -0.3325    -0.3415    -0.3314  -1.0057e-02      0.189 
 843   75   74  1    +0.1213    +0.1163    +0.1247  -8.3288e-03      0.189 
 383   22   23  1    +0.0400    +0.0345    +0.0421  -7.5762e-03      0.189 
   2    0    2  6    +0.9955    +0.9827    +0.9959  -1.3222e-02      0.188 
  62    0   62  6    +1.0012    +0.9885    +1.0018  -1.3251e-02      0.188 
 110    0  110  6    +0.9851    +0.9990    +0.9859  +1.3100e-02      0.188 
1068   96   95  4    +0.3949    +0.4057    +0.3940  +1.1704e-02      0.187 
 102    0  102  6    +1.0021    +1.0164    +1.0032  +1.3173e-02      0.187 
  70    0   70  6    +0.9976    +0.9852    +0.9983  -1.3146e-02      0.187 
 992   57   56  4    +0.2496    +0.2585    +0.2485  +9.9817e-03      0.186 
 668   77   82  4    +1.0878    +1.0848    +1.1016  -1.6840e-02      0.186 
  54    0   54  6    +0.9550    +0.9692    +0.9564  +1.2794e-02      0.186 
 661   77   78  4    -0.1175    -0.1102    -0.1181  +7.9331e-03      0.185 
 996   59   54  4    +0.0775    +0.0833    +0.0747  +8.5597e-03      0.185 
 847   78   77  1    +0.9435    +0.9577    +0.9425  +1.5120e-02      0.185 
1006   64   63  4    +0.5993    +0.5869    +0.5998  -1.2854e-02      0.185 
 615   49   54  4    +0.2462    +0.2554    +0.2448  +1.0576e-02      0.184 
 645   47   69  4    -0.2338    -0.2430    -0.2327  -1.0297e-02      0.183 
 871   94   92  1    -0.9078    -0.9082    -0.9241  +1.5876e-02      0.183 
 837   72   24  1    -0.8615    -0.8565    -0.8717  +1.5267e-02      0.183 
 912  118   76  1    -0.7909    -0.8108    -0.7963  -1.4442e-02      0.182 
 828   66   65  1    +2.5265    +2.4971    +2.5196  -2.2446e-02      0.182 
 275    0   39  5    -0.0150    -0.0190    -0.0139  -5.1552e-03      0.182 
 233    0  115  2    -0.0310    -0.0252    -0.0312  +5.9928e-03      0.182 
  17    0   17  6    +1.0086    +1.0216    +1.0088  +1.2808e-02      0.181 
 506   80   98  1    -0.9398    -0.9617    -0.9464  -1.5312e-02      0.181 
 763   30    8  1    -1.2216    -1.2179    -1.2344  +1.6445e-02      0.181 
 393   17   31  1    +0.0774    +0.0720    +0.0800  -7.9525e-03      0.181 
 633   63   59  4    +0.7873    +0.7693    +0.7834  -1.4143e-02      0.180 
 346    0  110  5    -0.1220    -0.1289    -0.1227  -6.2103e-03      0.180 
  72    0   72  6    +0.9800    +0.9677    +0.9802  -1.2535e-02      0.180 
 735   10    9  1    +2.0000    +2.0352    +2.0152  +1.9998e-02      0.180 
 591   38   37  4    +0.9128    +0.9270    +0.9123  +1.4734e-02      0.179 
 900  110  103  1    -0.1468    -0.1540    -0.1452  -8.7955e-03      0.178 
1012   66   62  4    +0.2062    +0.1973    +0.2071  -9.7873e-03      0.178 
 988   54   49  4    -0.2922    -0.3017    -0.2910  -1.0661e-02      0.177 
 682   89   92  4    -0.1138    -0.1122    -0.1208  +8.6684e-03      0.176 
 639   49   66  4    -0.1450    -0.1515    -0.1427  -8.7295e-03      0.176 
 206    0   88  2    -0.0670    -0.0711    -0.0669  -4.1282e-03      0.176 
  78    0   78  6    +1.0110    +0.9992    +1.0117  -1.2454e-02      0.176 
 112    0  112  6    +0.9750    +0.9640    +0.9761  -1.2169e-02      0.175 
 458   65   68  1    +9.5275    +9.6393    +9.5974  +4.1910e-02      0.175 
 395   23   32  1    -0.2630    -0.2581    -0.2678  +9.6772e-03      0.175 
1073  102   92  4    +0.1456    +0.1522    +0.1602  -7.9691e-03      0.175 
 405   38   37  1    +0.7025    +0.7180    +0.7053  +1.2767e-02      0.174 
1021   70   24  4    +0.1211    +0.1161    +0.1247  -8.5643e-03      0.174 
  84    0   84  6    +0.9938    +1.0051    +0.9929  +1.2203e-02      0.174 
...
Possível erro grosseiro no medidor 867!
Não foram identificadas medidas críticas.
Possíveis conjuntos críticos:
Conjunto 1: 247 919
Conjunto 2: 919 55
Conjunto 3: 563 731
Conjunto 4: 759 1087
Conjunto 5: 1091 166 587
Conjunto 6: 166 587
Conjunto 7: 1055 1029
Conjunto 8: 826 750
Conjunto 9: 535 369
Conjunto 10: 1004 1084
Conjunto 11: 133 962
Conjunto 12: 294 192
Conjunto 13: 241 638
Conjunto 14: 841 728
Conjunto 15: 589 254 744 130 957
Conjunto 16: 254 744 130 957
Conjunto 17: 744 130 957
Conjunto 18: 130 957
Conjunto 19: 517 710 607 757 976
Conjunto 20: 710 607 757 976
Conjunto 21: 607 757 976
Conjunto 22: 757 976
Conjunto 23: 822 14 1032
Conjunto 24: 14 1032
Conjunto 25: 439 723 287
Conjunto 26: 723 287
Conjunto 27: 287 940
Conjunto 28: 428 737
Conjunto 29: 674 446
Conjunto 30: 162 179
Conjunto 31: 875 618 448
Conjunto 32: 618 448 536
Conjunto 33: 448 536 4
Conjunto 34: 536 4 36
Conjunto 35: 4 36 901 138
Conjunto 36: 36 901 138
Conjunto 37: 901 138
Conjunto 38: 527 377 321 390 740 1018 427
Conjunto 39: 377 321 390 740 1018 427
Conjunto 40: 321 390 740 1018 427
Conjunto 41: 390 740 1018 427
Conjunto 42: 740 1018 427
Conjunto 43: 1018 427
Conjunto 44: 924 576
Conjunto 45: 576 60
Conjunto 46: 805 600 916 156
Conjunto 47: 600 916 156 278
Conjunto 48: 916 156 278
Conjunto 49: 156 278
Conjunto 50: 278 182
Conjunto 51: 182 814 334
Conjunto 52: 814 334 933
Conjunto 53: 334 933 85
Conjunto 54: 933 85 242 1094
Conjunto 55: 85 242 1094
Conjunto 56: 242 1094
Conjunto 57: 323 407
Conjunto 58: 913 1030 709
Conjunto 59: 1030 709 445
Conjunto 60: 709 445 653
Conjunto 61: 445 653 432
Conjunto 62: 653 432
Conjunto 63: 800 151
Conjunto 64: 151 284 302 794
Conjunto 65: 284 302 794
Conjunto 66: 302 794 564
Conjunto 67: 794 564
Conjunto 68: 829 127 412 451
Conjunto 69: 127 412 451
Conjunto 70: 412 451
Conjunto 71: 451 248
Conjunto 72: 248 799
Conjunto 73: 1066 711 1058
Conjunto 74: 711 1058 687 817
Conjunto 75: 1058 687 817
Conjunto 76: 687 817 823
Conjunto 77: 817 823
Conjunto 78: 823 973 873 908
Conjunto 79: 973 873 908 1017 848 567
Conjunto 80: 873 908 1017 848 567
Conjunto 81: 908 1017 848 567 402 83
Conjunto 82: 1017 848 567 402 83 475
Conjunto 83: 848 567 402 83 475 827
Conjunto 84: 567 402 83 475 827 811
Conjunto 85: 402 83 475 827 811
Conjunto 86: 83 475 827 811
Conjunto 87: 475 827 811
Conjunto 88: 827 811 596 1081
Conjunto 89: 811 596 1081
Conjunto 90: 596 1081 50 137
Conjunto 91: 1081 50 137
Conjunto 92: 50 137
Conjunto 93: 414 936 420 518
Conjunto 94: 936 420 518
Conjunto 95: 420 518
Conjunto 96: 655 798 770
Conjunto 97: 798 770 907 66
Conjunto 98: 770 907 66
Conjunto 99: 907 66 561 230
Conjunto 100: 66 561 230
Conjunto 101: 561 230 289
Conjunto 102: 230 289
Conjunto 103: 289 246
Conjunto 104: 246 1051 117
Conjunto 105: 1051 117
Conjunto 106: 626 881 889 276 622
Conjunto 107: 881 889 276 622 533
Conjunto 108: 889 276 622 533
Conjunto 109: 276 622 533 104
Conjunto 110: 622 533 104 332
Conjunto 111: 533 104 332 273
Conjunto 112: 104 332 273
Conjunto 113: 332 273 641
Conjunto 114: 273 641
Conjunto 115: 641 171
Conjunto 116: 623 539 81
Conjunto 117: 539 81
Conjunto 118: 335 808 277 950
Conjunto 119: 808 277 950 441 712 597 423 18
Conjunto 120: 277 950 441 712 597 423 18
Conjunto 121: 950 441 712 597 423 18
Conjunto 122: 441 712 597 423 18
Conjunto 123: 712 597 423 18 426
Conjunto 124: 597 423 18 426
Conjunto 125: 423 18 426
Conjunto 126: 18 426
Conjunto 127: 426 570
Conjunto 128: 570 702
Conjunto 129: 702 718
Conjunto 130: 571 1028 680 921 139
Conjunto 131: 1028 680 921 139
Conjunto 132: 680 921 139
Conjunto 133: 921 139 132
Conjunto 134: 139 132
Conjunto 135: 132 690
Conjunto 136: 225 96 742 1001 251 705
Conjunto 137: 96 742 1001 251 705
Conjunto 138: 742 1001 251 705 746
Conjunto 139: 1001 251 705 746 164
Conjunto 140: 251 705 746 164
Conjunto 141: 705 746 164 82
Conjunto 142: 746 164 82
Conjunto 143: 164 82 939
Conjunto 144: 82 939
Conjunto 145: 939 400 932
Conjunto 146: 400 932 56
Conjunto 147: 932 56
Conjunto 148: 56 303 27
Conjunto 149: 303 27 771
Conjunto 150: 27 771
Conjunto 151: 624 971
Conjunto 152: 971 264 1056 833
Conjunto 153: 264 1056 833 918 469 553 409
Conjunto 154: 1056 833 918 469 553 409 165
Conjunto 155: 833 918 469 553 409 165 12
Conjunto 156: 918 469 553 409 165 12 879
Conjunto 157: 469 553 409 165 12 879 253 586
Conjunto 158: 553 409 165 12 879 253 586
Conjunto 159: 409 165 12 879 253 586
Conjunto 160: 165 12 879 253 586
Conjunto 161: 12 879 253 586
Conjunto 162: 879 253 586
Conjunto 163: 253 586
Conjunto 164: 729 804
Conjunto 165: 804 468
Conjunto 166: 468 447 361 595
Conjunto 167: 447 361 595 1024
Conjunto 168: 361 595 1024
Conjunto 169: 595 1024 550
Conjunto 170: 1024 550 221
Conjunto 171: 550 221 765 975
Conjunto 172: 221 765 975 981
Conjunto 173: 765 975 981
Conjunto 174: 975 981
Conjunto 175: 981 1034
Conjunto 176: 1034 1007 342 460 720 363 857 185
Conjunto 177: 1007 342 460 720 363 857 185
Conjunto 178: 342 460 720 363 857 185
Conjunto 179: 460 720 363 857 185
Conjunto 180: 720 363 857 185 610
Conjunto 181: 363 857 185 610
Conjunto 182: 857 185 610
Conjunto 183: 185 610 202 532
Conjunto 184: 610 202 532 949
Conjunto 185: 202 532 949
Conjunto 186: 532 949
Conjunto 187: 949 77
Conjunto 188: 77 960 293
Conjunto 189: 960 293
Conjunto 190: 260 942 776
Conjunto 191: 942 776 839
Conjunto 192: 776 839
Conjunto 193: 839 33 259 783
Conjunto 194: 33 259 783
Conjunto 195: 259 783
Conjunto 196: 719 1098 546 358 449
Conjunto 197: 1098 546 358 449 437
Conjunto 198: 546 358 449 437 372
Conjunto 199: 358 449 437 372 628 575 1070
Conjunto 200: 449 437 372 628 575 1070 612
...
